aux files/SouthCarolinaShiftedScaled3.AUX
//--------------------------------------------------------------------------------
//CASE INFORMATION
//--------------------------------------------------------------------------------
PWCaseInformation (CountBus,BusMaxVoltID,BusMinVoltID,MismatchPmaxID,MismatchQmaxID,BusMaxVolt,
   BusMinVolt,MismatchPmax,MismatchQmax,CountArea,CountZone,LossMW,LossMvar,
   LoadMW,LoadMWNeg,LoadMvar,LoadMvarNeg,ShuntMvar,GenMW,GenMWNeg,GenMvar,
   GenMvarNeg,BranchMaxPerc,PTDFLoss,PVMonLoadMW,PVMonLoadMvar,PVMonGenMW,
   PVMonGenMVar,CustomFloat:0,CustomFloat:1,CustomFloat:2,CustomFloat:3,
   CustomFloat:4,CountInterface,GenCost,GenMWPosSpinRes,GenMWNegSpinRes,
   CustomExpression:0,CustomExpression:1,CountSub,Selected,CountMTDC,SlackBuses,
   ShuntMW,CaseName,CasePath,PVMonLossMW,PVMonLossMvar,Memo,CustomString:0,
   CustomString:1,CustomString:2,CustomString:3,CustomString:4,PVMonShuntMvar,
   PVMonShuntMW,CountIsland,CalcField:0,CountGen,CountLoad,CountShunt,CountLine,
   CountSeriesCap,CountLTC,CountLTCMvar,CountPhase,CountBreaker,CountDisconnect,
   CountZBR,CountFuse,CountLoadBreakDisconnect,CountGroundDisconnect,CountDCLine,
   CountInjectionGroup,TSSaveAll,CustomInteger:0,CustomInteger:1,CustomInteger:2,
   CustomInteger:3,CustomInteger:4,ContainedInDiffFlowsBC,CustomExpressionStr:0,
   CustomExpressionStr:1,BranchMaxPercID,CaseTimestamp,InOutage,RankOverload,
   TSSaveGenMW,TSSaveGenMvar,TSSaveLoadMW,TSSaveLoadMvar,TSSaveGenMWAccel,
   TSSaveGenMWMech,TSGenMW,TSGenMvar,TSLoadMW,TSLoadMvar,TSGenMWAccel,
   TSGenMWMech,TSSaveDSMetric,TSDSMetric,TSSaveDSLoadMWUnserved,
   TSDSLoadMWUnserved,DistMW,DistMvar,TSSaveGICTotalMvarLosses,
   TSGICTotalMvarLosses,TSSaveGICMaximumTransformerIeffectiveAmps,
   TSGICMaximumTransformerIeffectiveAmps,DataCheck:0,DataCheckAggr:0,
   SolutionDetail,CalcFieldExtra:0,CountContingency)
{
   500 "Bus '27'" "Bus '424'" "" "" 1.071 1.016 0.000 0.000      1      6 60.156 -167.727 5001.665 0.000 1333.777 0.000 -912.747 5061.819 0.000 253.271 0.000 74.587 0.000 "NO " "NO " "NO " "NO " "" "" "" "" ""      0 67457.453 1394.163 3278.393 "" ""    208 "NO "      0 "SENECA 3 3 (17) in Area SouthCarolina (1);" 0.000 "SouthCarolinaShiftedScaled3.AUX" "G:\Shared drives\Blue Eye 1\aux files\" "NO " "NO " "" "" "" "" "" "" "NO " "NO "      1 ""     90    206     17    468      0      0      0      0      0      0      0      0      0      0      0      0 "NO " "" "" "" "" "" "NO " "" "" "Branch '16' '14' '1'" "" "NONE" 46.398 "NO " "NO " "NO " "NO " "NO " "NO " "" "" "" "" "" "" "NO " 0.000 "NO " 0.000 0.000 0.000 "NO " "" "NO " "" "" "" "Successful Power Flow Solution" ""    681
   <SUBDATA PWCaseHeader>
     //Case Description
     This is a synthetic power system model that does NOT represent the actual grid. It was developed as part of the US ARPA-E Grid 
     Data research project and contains no CEII.
     Reference: A.B. Birchfield, T. Xu, K.M. Gegner, K.S. Shetye, and T.J. Overbye, "Grid Structural Characteristics as Validation 
     Criteria for Synthetic Networks," to appear, IEEE Transactions on Power Systems, 2017.
   </SUBDATA>
}

Filter (ObjectType,Name,Logic,LogicNumTrue,FilterPre,Enabled,DataMaintainerAssign)
{
"Gen" "hydro" "AND" 0 "NO " "YES" ""
   <SUBDATA Condition>
     FuelType = "hydro"
   </SUBDATA>
}

DataGrid (Name,FilterPre,RowHeight,FontNonDefault,FontName,FontStyles,FontSize,FontColor,
   SortVariable,SortOrder,Filter,Zoom,FrozenCols,RemoveTrailingZeros)
{
"AllDisplayObject" "YES"     13 "NO " "Segoe UI" ""      8      0 "SOSize" "High To Low" "" 100.000 -1 "NO "
   <SUBDATA ColumnInfo>
     "SOClass"              243  8 3
     "SOX"                  100  8 3
     "SOY"                  100  8 3
     "SLName"               100  8 3
     "SLShown"              100  8 3
     "SelectableInEditMode" 100  8 3
     "SOSize"               100  8 3
     "SOZoomCond"           100  8 3
     "SOZoomLow"            100  8 3
     "SOZoomHigh"           100  8 3
     "SOAnchored"           100  8 3
     "SOFontSize"           100  8 3
   </SUBDATA>
   <SUBDATA ColumnContourInfo>
   </SUBDATA>
"Contingency" "YES"     13 "NO " "Segoe UI" ""      8      0 "Solved" "Low To High" "" 100.000 -1 "NO "
   <SUBDATA ColumnInfo>
     "Name"                 276  8 1
     "Skip"                  50  8 1
     "Category"              50  8 1
     "Processed"             50  8 1
     "Solved"               133  8 1
     "PostCTGAuxFile"        50  8 1
     "LoadMWIslanded"        50  8 2
     "GenMWIslanded"         50  8 2
     "OccurredGlobalCount"   50  8 1
     "OccurredTransientCount"  50  8 1
     "OccurredRemedialCount"  50  8 1
     "QVAutoPlot"            50  8 1
     "ViolCustom"            50  8 1
     "Violations"            50  8 1
     "BranchMaxPerc"         50  8 1
     "MinVolt"               50  8 3
     "MaxVolt"               50  8 3
     "InterfaceMaxPerc"      50  8 1
     "Memo"                 200  8 1
   </SUBDATA>
   <SUBDATA ColumnContourInfo>
   </SUBDATA>
"ViolationContingencyAll" "YES"     13 "NO " "Segoe UI" ""      8      0 "" "High To Low" "" 100.000 -1 "NO "
   <SUBDATA ColumnInfo>
     "CTG_Name"             140  8 1
     "LV_Element"           296  8 1
     "LV_Type"              133  8 2
     "LV_Value"              50  8 2
     "LV_Limit"              50  8 2
     "LV_Percent"            50  8 2
     "LV_CTGSpecifiedLimit"  50  8 1
     "LV_LimitScale"         50  8 2
   </SUBDATA>
   <SUBDATA ColumnContourInfo>
   </SUBDATA>
"GICXFormer" "YES"     13 "NO " "Segoe UI" ""      8      0 "GICXFNeutralAmps" "High To Low" "" 100.000 -1 "NO "
   <SUBDATA ColumnInfo>
     "BusNum3W"              80  8 0
     "BusName3W"            146  8 0
     "BusNum3W:1"            80  8 0
     "BusName3W:1"          136  8 0
     "BusNum3W:2"            80  8 0
     "BusName3W:2"           80  8 0
     "LineCircuit"           80  8 0
     "GICXFIEffective1"      80  8 3
     "GICXFIEffective1PU"    80  8 3
     "GICQLosses"            80  8 2
     "GICMaxQLosses"         80  8 2
     "GICMaxDegrees"         80  8 1
     "GICXFNeutralAmps"      80  8 3
     "GICMaxAmpsToNeutral3"  80  8 2
     "GICMaxAmpsToNeutral3Degrees"  80  8 1
     "GICIgnoreLosses"       60  8 0
     "GICBlockDevice"        70  8 0
     "GICXFNeutralR"         80  8 3
     "GICManualCoilR"        60  8 0
     "GICXFCoilR1"           80  8 5
     "GICXFCoilR1:1"         80  8 5
     "GICXFCoilR1:2"         80  8 5
     "XFConfiguration"       50  8 0
     "XFConfiguration:1"     50  8 0
     "XFConfiguration:2"     50  8 0
     "GICXFConfigUsed"       80  8 0
     "XFIsAutoXF"            70  9 2
     "GICAutoXFUsed"         70  9 0
     "XFCoreType"           100  9 2
     "GICModelType"          80  9 2
     "GICModelParam"         80  8 3
     "GICModelParam:1"       80  8 3
     "GICModelParam:2"       80  8 3
     "GICModelKUsed"         80  8 4
     "GICModelKUsed:1"       80  8 4
     "GICModelKUsed:2"       80  8 4
     "GICLineDCFlow"         80  8 2
     "GICLineDCFlow:1"       80  8 2
     "BusNum3W:3"            80  8 0
     "BusName3W:3"           80  8 0
   </SUBDATA>
   <SUBDATA ColumnContourInfo>
   </SUBDATA>
"Area" "YES"     13 "NO " "Segoe UI" ""      8      0 "" "High To Low" "" 100.000 -1 "NO "
   <SUBDATA ColumnInfo>
     "GenMvarRangeDownAVR"   75  8 2
     "GenMvarRangeUpAVR"     75  8 2
     "Number"                75  8 2
     "Name"                  75  8 2
     "AGC"                   75  8 2
     "GenMW"                 75  8 2
     "LoadMW"                75  8 2
     "ShuntMW"               75  8 2
     "ExportMWSched"         75  8 2
     "ExportMW"              75  8 2
     "ACE"                   75  8 2
     "EconDispLambda"        75  8 2
     "LossMW"                75  8 2
     "AutoControlShunt"      75  8 2
     "AutoControlXF"         75  8 2
     "SlackBus"              75  8 2
     "ExportMWUnspecified"   75  8 2
     "AGCTolerance"          75  8 2
   </SUBDATA>
   <SUBDATA ColumnContourInfo>
   </SUBDATA>
"Zone" "YES"     13 "NO " "Segoe UI" ""      8      0 "Number" "Low To High" "" 100.000 -1 "NO "
   <SUBDATA ColumnInfo>
     "Number"                75  8 2
     "Name"                  75  8 2
     "LoadMW"                93  8 2
     "LoadMvar"              75  8 2
     "GenMW"                 75  8 2
     "GenMvar"               75  8 2
     "LossMW"                75  8 2
     "LossMvar"              75  8 2
     "ExportMW"              75  8 2
     "ExportMvar"            75  8 2
     "LoadMWScale"           75  8 2
   </SUBDATA>
   <SUBDATA ColumnContourInfo>
   </SUBDATA>
"Substation" "YES"     13 "NO " "Segoe UI" ""      8      0 "" "Low To High" "" 100.000 -1 "NO "
   <SUBDATA ColumnInfo>
     "Longitude"             75  8 2
     "Latitude"              75  8 2
     "Number"                75  8 2
     "Name"                  75  8 2
     "IDExtra"               75  8 2
     "AreaName"              75  8 2
     "ZoneName"              75  8 2
     "CountBus"              75  8 2
     "NomkVMax"             100  6 1
     "GenMW"                 75  8 2
     "GenMvar"               75  8 2
     "LoadMW"                75  8 2
     "LoadMvar"              75  8 2
     "ShuntMW"               75  8 2
     "ShuntMvar"             75  8 2
   </SUBDATA>
   <SUBDATA ColumnContourInfo>
   </SUBDATA>
"Bus" "YES"     13 "NO " "Segoe UI" ""      8      0 "Vpu" "High To Low" "" 100.000 -1 "NO "
   <SUBDATA ColumnInfo>
     "Number"                75  8 2
     "Name"                 128  8 2
     "ZoneName"             118  8 2
     "AreaName"             137  8 2
     "SubLatitude"           75  8 2
     "SubLongitude"          75  8 2
     "NomkV"                 75  8 2
     "Vpu"                   75  8 5
     "kV"                    75  8 3
     "Vangle"                75  8 2
     "LoadMW"                75  8 2
     "LoadMvar"              75  8 2
     "GenMW"                 75  8 2
     "GenMvar"               75  8 2
     "ShuntMvar"             75  8 2
     "ActG"                  75  8 2
     "ActB"                  75  8 2
     "AreaNumber"            75  8 2
     "ZoneNumber"            75  8 2
   </SUBDATA>
   <SUBDATA ColumnContourInfo>
   </SUBDATA>
"Gen" "YES"     13 "NO " "Segoe UI" ""      8      0 "FuelType" "High To Low" "" 100.000 -1 "NO "
   <SUBDATA ColumnInfo>
     "UnitType"              75  8 2
     "OPFMargCostMW"         75  8 2
     "FuelType"              75  8 2
     "BusNum"                75  8 2
     "BusName"              114  8 2
     "ID"                    50  8 4
     "Status"                60  8 2
     "MW"                    75  8 2
     "Mvar"                  75  8 2
     "VoltSet"               60  8 5
     "AGC"                   40  8 2
     "AVR"                   40  8 2
     "MWMin"                 75  8 2
     "MWMax"                 75  8 5
     "MvarMin"               75  8 2
     "MvarMax"               75  8 2
     "CostModel"             75  8 2
     "PartFact"              75  8 2
   </SUBDATA>
   <SUBDATA ColumnContourInfo>
   </SUBDATA>
"BranchRun" "YES"     13 "NO " "Segoe UI" ""      8      0 "Circuit" "High To Low" "" 100.000 -1 "NO "
   <SUBDATA ColumnInfo>
     "BusNumFrom"            80  9 1
     "BusNameFrom"          102  9 1
     "BusNumTo"              80  9 1
     "BusNameTo"             80  9 1
     "Circuit"               47  9 1
     "Status"                62  9 1
     "BranchDeviceType"      62  9 1
     "IsXF"                  47  9 1
     "R"                     75  9 5
     "X"                     75  9 5
     "B"                     75  9 5
     "LimitMVAA"             75  9 1
     "LimitMVAB"             75  9 1
     "LimitMVAC"             75  9 1
   </SUBDATA>
   <SUBDATA ColumnContourInfo>
   </SUBDATA>
"BranchEdit" "YES"     13 "NO " "Segoe UI" ""      8      0 "PercentMVA" "High To Low" "" 100.000 -1 "NO "
   <SUBDATA ColumnInfo>
     "BusNumFrom"            43  9 1
     "BusNameFrom"          130  9 1
     "BusNumTo"              40  9 1
     "BusNameTo"            118  9 1
     "Circuit"               47  9 1
     "Status"                62  9 1
     "BranchDeviceType"      62  9 1
     "IsXF"                  47  9 1
     "MWFrom"                75  9 1
     "MvarFrom"              75  9 1
     "MVAFrom"               75  9 1
     "LimitMVANormal"        75  9 1
     "PercentMVA"            75  9 1
     "LossMW"                75  9 2
     "LossMvar"              75  9 2
   </SUBDATA>
   <SUBDATA ColumnContourInfo>
   </SUBDATA>
"BusGroupBusObjects" "NO "     13 "NO " "Segoe UI" ""      8      0 "" "High To Low" "" 100.000 -1 "NO "
   <SUBDATA ColumnInfo>
     "Number"                80  8 2
     "Name"                 105  8 2
     "AreaName"              80  8 2
     "NomkV"                 80  8 2
     "Vpu"                   80  8 5
     "kV"                    80  8 3
     "Vangle"                80  8 2
     "LoadMW"                80  8 2
     "LoadMvar"              80  8 2
     "GenMW"                 80  8 2
     "GenMvar"               80  8 2
     "ShuntMvar"             80  8 2
     "ActG"                  80  8 2
     "ActB"                  80  8 2
     "AreaNumber"            80  8 2
     "ZoneNumber"            80  8 2
   </SUBDATA>
   <SUBDATA ColumnContourInfo>
   </SUBDATA>
"BranchLineOnlyGrid" "YES"     13 "NO " "Segoe UI" ""      8      0 "" "High To Low" "" 100.000 -1 "NO "
   <SUBDATA ColumnInfo>
     "GICLineDistanceKm"     80  9 1
     "NomkVMax"              80  9 1
     "BusNumFrom"            80  9 1
     "BusNameFrom"           80  9 1
     "BusNumTo"              80  9 1
     "BusNameTo"             80  9 1
     "Circuit"               47  9 1
     "BranchDeviceType"      47  9 1
     "R"                     75  9 8
     "X"                     75  9 8
     "B"                     75  9 8
     "LimitMVAA"             75  9 8
     "LimitMVAB"             75  9 1
     "LimitMVAC"             75  9 1
   </SUBDATA>
   <SUBDATA ColumnContourInfo>
   </SUBDATA>
"BranchTransformerOnlyGrid" "YES"     13 "NO " "Segoe UI" ""      8      0 "" "High To Low" "" 100.000 -1 "NO "
   <SUBDATA ColumnInfo>
     "NomkVMax"              80  9 1
     "BusNumFrom"            80  9 1
     "XFConfiguration"       80  9 1
     "BusNameFrom"           80  9 1
     "BusNumTo"              80  9 1
     "BusNameTo"             80  9 1
     "Circuit"               47  9 1
     "BranchDeviceType"      47  9 1
     "R"                     75  9 5
     "X"                     75  9 5
     "B"                     75  9 5
     "LimitMVAA"             75  9 1
     "LimitMVAB"             75  9 1
     "LimitMVAC"             75  9 1
   </SUBDATA>
   <SUBDATA ColumnContourInfo>
   </SUBDATA>
}

//--------------------------------------------------------------------------------
// DEFAULT DRAWING VALUES SETTINGS
//--------------------------------------------------------------------------------

DefDrawOneline (FontName,FontStyles,FontColor,SOFontSize,DFDoFontSize,SOSBackgroundColorToUse)
{
"Tahoma" "" 0 14 "YES" 16777215
}

DefDrawArea (SOData,SOColor,SOUseFillColor,SOFillColor,SOHeight,SOWidth,SOThickness,
   SOOrientation,LimitHighlightingUsed,LimitHighlightColor,
   LimitHighlightMagnification,SOField,SOField:1,SOField:2,SOField:3,SOField:4,
   SOField:5,SOField:6,SOField:7)
{
"Name" 0 "YES" 16763080 5.000000 10.000000 1 "Rectangle" "NO " 255 0 " - - - " " - - - " " - - - " " - - - " " - - - " " - - - " " - - - " " - - - "
}

DefDrawZone (SOData,SOColor,SOUseFillColor,SOFillColor,SOHeight,SOWidth,SOThickness,
   SOOrientation,LimitHighlightingUsed,LimitHighlightColor,
   LimitHighlightMagnification,SOField,SOField:1,SOField:2,SOField:3,SOField:4,
   SOField:5,SOField:6,SOField:7)
{
"Name" 0 "YES" 16763080 5.000000 10.000000 1 "Rectangle" "NO " 255 0 " - - - " " - - - " " - - - " " - - - " " - - - " " - - - " " - - - " " - - - "
}

DefDrawSuperArea (SOData,SOColor,SOUseFillColor,SOFillColor,SOHeight,SOWidth,SOThickness,
   SOOrientation,LimitHighlightingUsed,LimitHighlightColor,
   LimitHighlightMagnification,SOField,SOField:1,SOField:2,SOField:3,SOField:4,
   SOField:5,SOField:6,SOField:7)
{
"Name" 0 "YES" 16763080 5.000000 10.000000 1 "Rectangle" "NO " 255 0 " - - - " " - - - " " - - - " " - - - " " - - - " " - - - " " - - - " " - - - "
}

DefDrawBackground (SOColor,SOUseFillColor,SOFillColor,SOFontSize,SOThickness,LimitHighlightingUsed,
   LimitHighlightColor,LimitHighlightMagnification)
{
0 "NO " -1 14 1 "NO " 255 0
}

DefDrawBus (BusNomVolt,SOColor,SOUseFillColor,SOFillColor,SOSize,SOWidth,SOFontSize,
   SOThickness,SOStyle,SOOrientation,VoltGaugeColor,VoltGaugeMaxPU,
   VoltGaugeMinPU,VoltGaugeTargetPU,LimitHighlightingUsed,LimitHighlightColor,
   LimitHighlightMagnification,SOField,SOField:1,SOField:2,SOField:3,SOField:4,
   SOField:5,SOField:6,SOField:7)
{
600.00 0 "YES" 0 15.000000 0.400000 50 1 "Rectangle" "Right" 16711680 1.100000 0.900000 1.000000 "NO " 255 0 " - - - " " - - - " " - - - " " - - - " " - - - " "Name@0@0@0@0@1@" " - - - " " - - - "
400.00 0 "YES" 0 12.000000 0.300000 40 1 "Rectangle" "Right" 16711680 1.100000 0.900000 1.000000 "NO " 255 0 " - - - " " - - - " " - - - " " - - - " " - - - " "Name@0@0@0@0@1@" " - - - " " - - - "
300.00 0 "YES" 0 10.000000 0.300000 30 1 "Rectangle" "Right" 16711680 1.100000 0.900000 1.000000 "NO " 255 0 " - - - " " - - - " " - - - " " - - - " " - - - " "Name@0@0@0@0@1@" " - - - " " - - - "
200.00 0 "YES" 0 7.000000 0.200000 20 1 "Rectangle" "Right" 16711680 1.100000 0.900000 1.000000 "NO " 255 0 " - - - " " - - - " " - - - " " - - - " " - - - " "Name@0@0@0@0@1@" " - - - " " - - - "
100.00 0 "YES" 0 5.000000 0.200000 15 1 "Rectangle" "Right" 16711680 1.100000 0.900000 1.000000 "NO " 255 0 " - - - " " - - - " " - - - " " - - - " " - - - " "Name@0@0@0@0@1@" " - - - " " - - - "
  0.00 0 "YES" 0 3.000000 0.200000 10 1 "Rectangle" "Right" 16711680 1.100000 0.900000 1.000000 "NO " 255 0 " - - - " " - - - " " - - - " " - - - " " - - - " "Name@0@0@0@0@1@" " - - - " " - - - "
}

DefDrawGen (BusNomVolt,SOColor,SOUseFillColor,SOFillColor,UseRotorColor,RotorShapeColor,
   SOStyle,SOSize,SOWidth,SOFontSize,SOThickness,SOOrientation,
   LimitHighlightingUsed,LimitHighlightColor,LimitHighlightMagnification,SOField,
   SOField:1,SOField:2,SOField:3,SOField:4,SOField:5)
{
  0.00 0 "NO " -1 "NO " -1 "Dog Bone" 10.000000 7.500000 14 1 "Down" "NO " 255 0 " - - - " " - - - " "Gen MW@4@0@0@0@1@" "Gen MVAR@4@0@0@0@1@" " - - - " " - - - "
}

DefDrawInterface (SOColor,SOUseFillColor,SOFillColor,SOFontSize,SOPieSize,SOThickness,
   LimitHighlightingUsed,LimitHighlightColor,LimitHighlightMagnification,SOField,
   SOField:1,SOField:2,SOField:3,SOField:4,SOField:5)
{
0 "NO " -1 14 50.000000 1 "NO " 255 0 " - - - " " - - - " " - - - " " - - - " " - - - " " - - - "
}

DefDrawLineTransformer (BusNomVolt,SOColor,SOFontSize,SOThickness,SOCBSize,SOPieSize,SOXFMRSize,
   LineGaugeColor,SOStubSize,SOStubSpace,LimitHighlightingUsed,
   LimitHighlightColor,LimitHighlightMagnification,SOField,SOField:1,SOField:2,
   SOField:3,SOField:4,SOField:5,SOField:6,SOField:7,SOField:8,SOField:9)
{
600.00 65280 50 2 3.000000 70.000000 4.000000 16711680 4.000000 4.500000 "NO " 255 0 " - - - " " - - - " " - - - " " - - - " " - - - " " - - - " " - - - " " - - - " " - - - " " - - - "
400.00 33023 40 2 2.500000 50.000000 4.000000 16711680 3.300000 3.700000 "NO " 255 0 " - - - " " - - - " " - - - " " - - - " " - - - " " - - - " " - - - " " - - - " " - - - " " - - - "
300.00 255 30 1 2.000000 30.000000 3.000000 16711680 2.500000 3.000000 "NO " 255 0 " - - - " " - - - " " - - - " " - - - " " - - - " " - - - " " - - - " " - - - " " - - - " " - - - "
200.00 16744448 20 1 1.400000 15.000000 2.000000 16711680 1.700000 2.000000 "NO " 255 0 " - - - " " - - - " " - - - " " - - - " " - - - " " - - - " " - - - " " - - - " " - - - " " - - - "
100.00 0 15 1 1.000000 8.000000 1.500000 16711680 1.300000 1.500000 "NO " 255 0 " - - - " " - - - " " - - - " " - - - " " - - - " " - - - " " - - - " " - - - " " - - - " " - - - "
  0.00 32768 10 1 0.600000 3.000000 1.000000 16711680 0.800000 1.000000 "NO " 255 0 " - - - " " - - - " " - - - " " - - - " " - - - " " - - - " " - - - " " - - - " " - - - " " - - - "
}

DefDrawLoad (BusNomVolt,SOColor,SOSize,SOWidth,SOFontSize,SOThickness,SOOrientation,
   LimitHighlightingUsed,LimitHighlightColor,LimitHighlightMagnification,SOField,
   SOField:1,SOField:2,SOField:3,SOField:4,SOField:5)
{
  0.00 0 10.000000 3.750000 14 1 "Up" "NO " 255 0 " - - - " " - - - " "Load MW@4@0@0@0@1@" "Load MVAR@4@0@0@0@1@" " - - - " " - - - "
}

DefDrawShunt (BusNomVolt,SOColor,SOSize,SOWidth,SOFontSize,SOThickness,SOOrientation,
   LimitHighlightingUsed,LimitHighlightColor,LimitHighlightMagnification,SOField,
   SOField:1,SOField:2,SOField:3,SOField:4,SOField:5)
{
  0.00 0 10.000000 3.000000 14 1 "Up" "NO " 255 0 " - - - " " - - - " " - - - " "Shunt MVAR@5@1@0@0@1@" " - - - " " - - - "
}

DefDrawDFACTS (BusNomVolt,SOColor,SOUseFillColor,SOFillColor,SOFontSize,SOThickness,SOHeight,
   SOWidth,LimitHighlightingUsed,LimitHighlightColor,LimitHighlightMagnification,
   SOField,SOField:1,SOField:2,SOField:3,SOField:4,SOField:5,SOField:6,SOField:7)
{
  0.00 0 "YES" 16711680 14 1 2.000000 6.000000 "NO " 255 0 " - - - " " - - - " " - - - " " - - - " " - - - " " - - - " " - - - " " - - - "
}

DefDrawSubstation (BusNomVolt,SOColor,SOUseFillColor,SOFillColor,SOHeight,SOWidth,SOStyle,
   SOFontSize,SOThickness,LimitHighlightingUsed,LimitHighlightColor,
   LimitHighlightMagnification,SOField,SOField:1,SOField:2,SOField:3,SOField:4,
   SOField:5,SOField:6,SOField:7)
{
600.00 0 "YES" 65280 15.000000 30.000000 "UseSubLayout" 14 1 "NO " 255 0 "Name@0@0@0@0@1@" " - - - " " - - - " " - - - " " - - - " " - - - " " - - - " " - - - "
400.00 0 "YES" 33023 12.000000 24.000000 "UseSubLayout" 14 1 "NO " 255 0 "Name@0@0@0@0@1@" " - - - " " - - - " " - - - " " - - - " " - - - " " - - - " " - - - "
300.00 0 "YES" 255 10.000000 20.000000 "UseSubLayout" 14 1 "NO " 255 0 "Name@0@0@0@0@1@" " - - - " " - - - " " - - - " " - - - " " - - - " " - - - " " - - - "
200.00 0 "YES" 16744448 7.000000 14.000000 "UseSubLayout" 14 1 "NO " 255 0 "Name@0@0@0@0@1@" " - - - " " - - - " " - - - " " - - - " " - - - " " - - - " " - - - "
100.00 0 "YES" 8421504 5.000000 10.000000 "UseSubLayout" 14 1 "NO " 255 0 "Name@0@0@0@0@1@" " - - - " " - - - " " - - - " " - - - " " - - - " " - - - " " - - - "
  0.00 0 "YES" 32768 3.000000 6.000000 "UseSubLayout" 14 1 "NO " 255 0 "Name@0@0@0@0@1@" " - - - " " - - - " " - - - " " - - - " " - - - " " - - - " " - - - "
}

DefDrawMSLine (BusNomVolt,SOColor,SOFontSize,SOThickness,SOPieSize,SOStubSize,SOStubSpace,
   SOXFMRSize,SOPercent,LimitHighlightingUsed,LimitHighlightColor,
   LimitHighlightMagnification,SOField,SOField:1,SOField:2,SOField:3,SOField:4,
   SOField:5,SOField:6,SOField:7,SOField:8,SOField:9)
{
600.00 65280 50 2 70.000000 4.000000 4.500000 4.000000 15.000000 "NO " 255 0 " - - - " " - - - " " - - - " " - - - " " - - - " " - - - " " - - - " " - - - " " - - - " " - - - "
400.00 33023 40 2 50.000000 3.300000 3.700000 4.000000 15.000000 "NO " 255 0 " - - - " " - - - " " - - - " " - - - " " - - - " " - - - " " - - - " " - - - " " - - - " " - - - "
300.00 255 30 1 30.000000 2.500000 3.000000 3.000000 11.000000 "NO " 255 0 " - - - " " - - - " " - - - " " - - - " " - - - " " - - - " " - - - " " - - - " " - - - " " - - - "
200.00 16744448 20 1 15.000000 1.700000 2.000000 2.000000 8.000000 "NO " 255 0 " - - - " " - - - " " - - - " " - - - " " - - - " " - - - " " - - - " " - - - " " - - - " " - - - "
100.00 0 15 1 8.000000 1.300000 1.500000 1.500000 6.000000 "NO " 255 0 " - - - " " - - - " " - - - " " - - - " " - - - " " - - - " " - - - " " - - - " " - - - " " - - - "
  0.00 32768 10 1 3.000000 0.800000 1.000000 1.000000 4.000000 "NO " 255 0 " - - - " " - - - " " - - - " " - - - " " - - - " " - - - " " - - - " " - - - " " - - - " " - - - "
}


CustomCaseInfo (Name,RowHeight,FontNonDefault,FontName,FontStyles,FontSize,FontColor)
{
"Default Custom Case Information"     13 "NO " "Segoe UI" ""      8      0
   <SUBDATA ColumnInfo>
   </SUBDATA>
}

Owner (Number,Name,DataMaintainerAssign)
{
     1 "1" ""
}

Bus (Number,Name,NomkV,Vpu,Vangle,NomG,NomB,AreaNumber,ZoneNumber,BANumber,SubNumber,
   Slack,Status,CTGLoadThrowNum,CTGLoadThrowNameNomkV,LongName,kV,VangleRad,
   VpuReal,VpuImag,MargCostMW,MargCostMWEnergy,MargCostMWCong,MargCostMWLoss,
   MargCostMvar,MargCostMvarCong,MargCostMvarLoss,MargCostVolt,GenRemRegVoltSet,
   OwnerNumber,Equiv,Scale,TimeStepSelected,LimitSet,Monitor,UseSpecificLimits,
   LimitLowUsed,LimitHighUsed,OPFUnenforceableVolt,OPFVoltBinding,LossSensMW,
   LossSensMvar,DCLossMultiplier,Latitude,Longitude,LatitudeString,
   LongitudeString,Datum,PVMonVpu,PVMonKV,PVMonVangle,PVMonSensdVdQself,
   PVMonLoadMW,PVMonLoadMvar,PVMonShuntMvar,QVMinVolt,QVMaxVolt,QVStepSize,
   DataMaintainerAssign)
{
     1 "WINNSBORO 0"  138.00 1.022997 -44.807911   0.0000   0.0000      1      6      1 1 "NO " "Connected" "" "" "newbus 138" 141.1736  -0.782046   0.7258  -0.7209  20.0811  19.2696   0.8115   0.0000  -0.0707  -0.0707   0.0000   0.0000 ""      1 "Study" "NO " "NO " "Default" "YES" "NO "   0.9000   1.1000 "   " "No"   0.0000   0.0000   1.0000 "" "" "" "" "" "NO " "NO " "NO " "NO " "NO " "NO " "NO "  0.100  1.100  0.010 ""
     2 "WINNSBORO 1"  138.00 1.022593 -44.857499   0.0000   0.0000      1      6      1 1 "NO " "Connected" "" "" "newbus 138" 141.1178  -0.782911   0.7249  -0.7213  20.0812  19.2696   0.8116   0.0000  -0.0707  -0.0707   0.0000   0.0000 ""      1 "Study" "NO " "NO " "Default" "YES" "NO "   0.9000   1.1000 "   " "No"   0.0000   0.0000   1.0000 "" "" "" "" "" "NO " "NO " "NO " "NO " "NO " "NO " "NO "  0.100  1.100  0.010 ""
     3 "COLUMBIA 11 0" 138.00 1.020409 -46.507703   0.0000   0.0000      1      6      1 2 "NO " "Connected" "" "" "newbus 138" 140.8165  -0.811713   0.7023  -0.7403  20.0747  19.2696   0.8051   0.0000  -0.0256  -0.0256   0.0000   0.0000 ""      1 "Study" "NO " "NO " "Default" "YES" "NO "   0.9000   1.1000 "   " "No"   0.0000   0.0000   1.0000 "" "" "" "" "" "NO " "NO " "NO " "NO " "NO " "NO " "NO "  0.100  1.100  0.010 ""
     4 "COLUMBIA 11 1" 138.00 1.018907 -46.679700   0.0000   0.0000      1      6      1 2 "NO " "Connected" "" "" "newbus 138" 140.6091  -0.814714   0.6990  -0.7413  20.0756  19.2696   0.8060   0.0000  -0.0254  -0.0254   0.0000   0.0000 ""      1 "Study" "NO " "NO " "Default" "YES" "NO "   0.9000   1.1000 "   " "No"   0.0000   0.0000   1.0000 "" "" "" "" "" "NO " "NO " "NO " "NO " "NO " "NO " "NO "  0.100  1.100  0.010 ""
     5 "SMYRNA 0"     138.00 1.033116 -25.811601   0.0000   0.0000      1      4      2 3 "NO " "Connected" "" "" "newbus 138" 142.5701  -0.450497   0.9300  -0.4498  10.4423  19.2696  -8.8273   0.0000   1.2946   1.2946   0.0000   0.0000 ""      1 "Study" "NO " "NO " "Default" "YES" "NO "   0.9000   1.1000 "   " "No"   0.0000   0.0000   1.0000 "" "" "" "" "" "NO " "NO " "NO " "NO " "NO " "NO " "NO "  0.100  1.100  0.010 ""
     6 "SMYRNA 1"     138.00 1.033085 -25.815603   0.0000   0.0000      1      4      2 3 "NO " "Connected" "" "" "newbus 138" 142.5657  -0.450567   0.9300  -0.4499  10.4423  19.2696  -8.8273   0.0000   1.2946   1.2946   0.0000   0.0000 ""      1 "Study" "NO " "NO " "Default" "YES" "NO "   0.9000   1.1000 "   " "No"   0.0000   0.0000   1.0000 "" "" "" "" "" "NO " "NO " "NO " "NO " "NO " "NO " "NO "  0.100  1.100  0.010 ""
     7 "EASTOVER 2 0" 345.00 1.037576 -41.958777   0.0000   0.0000      1      6      1 4 "NO " "Connected" "" "" "newbus 138" 357.9636  -0.732319   0.7716  -0.6937  20.0725  19.2696   0.8029   0.0000  -0.0321  -0.0321   0.0000   0.0000 ""      1 "Study" "NO " "NO " "Default" "YES" "NO "   0.9000   1.1000 "   " "No"   0.0000   0.0000   1.0000 "" "" "" "" "" "NO " "NO " "NO " "NO " "NO " "NO " "NO "  0.100  1.100  0.010 ""
     8 "EASTOVER 2 1" 138.00 1.034145 -42.999134   0.0000   0.0000      1      6      1 4 "NO " "Connected" "" "" "newbus 138" 142.7120  -0.750476   0.7563  -0.7053  20.0684  19.2696   0.7988   0.0000  -0.0366  -0.0366   0.0000   0.0000 ""      1 "Study" "NO " "NO " "Default" "YES" "NO "   0.9000   1.1000 "   " "No"   0.0000   0.0000   1.0000 "" "" "" "" "" "NO " "NO " "NO " "NO " "NO " "NO " "NO "  0.100  1.100  0.010 ""
     9 "EASTOVER 2 2" 13.80 1.040000 -41.122689   0.0000   0.0000      1      6      1 4 "NO " "Connected" "" "" "newbus 138"  14.3520  -0.717726   0.7834  -0.6840  20.0730  19.2696   0.8034   0.0000 "PV Bus" "PV Bus" "PV Bus"   0.0000 ""      1 "Study" "NO " "NO " "Default" "YES" "NO "   0.9000   1.1000 "   " "No"   0.0000   0.0000   1.0000 "" "" "" "" "" "NO " "NO " "NO " "NO " "NO " "NO " "NO "  0.100  1.100  0.010 ""
    10 "CHAPPELLS 2 0" 138.00 1.034519 -44.349202   0.0000   0.0000      1      5      1 5 "NO " "Connected" "" "" "newbus 138" 142.7637  -0.774040   0.7398  -0.7232  19.6491  19.2696   0.3795   0.0000  -0.0082  -0.0082   0.0000   0.0000 ""      1 "Study" "NO " "NO " "Default" "YES" "NO "   0.9000   1.1000 "   " "No"   0.0000   0.0000   1.0000 "" "" "" "" "" "NO " "NO " "NO " "NO " "NO " "NO " "NO "  0.100  1.100  0.010 ""
    11 "CHAPPELLS 2 1" 138.00 1.034494 -44.351983   0.0000   0.0000      1      5      1 5 "NO " "Connected" "" "" "newbus 138" 142.7602  -0.774088   0.7397  -0.7232  19.6491  19.2696   0.3795   0.0000  -0.0082  -0.0082   0.0000   0.0000 ""      1 "Study" "NO " "NO " "Default" "YES" "NO "   0.9000   1.1000 "   " "No"   0.0000   0.0000   1.0000 "" "" "" "" "" "NO " "NO " "NO " "NO " "NO " "NO " "NO "  0.100  1.100  0.010 ""
    12 "PELZER 0"     138.00 1.040945 -40.487237   0.0000   0.0000      1      2      2 6 "NO " "Connected" "" "" "newbus 138" 143.6504  -0.706636   0.7917  -0.6759  19.3624  19.2696   0.0928   0.0000   0.0136   0.0136   0.0000   0.0000 ""      1 "Study" "NO " "NO " "Default" "YES" "NO "   0.9000   1.1000 "   " "No"   0.0000   0.0000   1.0000 "" "" "" "" "" "NO " "NO " "NO " "NO " "NO " "NO " "NO "  0.100  1.100  0.010 ""
    13 "PELZER 1"     138.00 1.040650 -40.520254   0.0000   0.0000      1      2      2 6 "NO " "Connected" "" "" "newbus 138" 143.6096  -0.707212   0.7911  -0.6761  19.3624  19.2696   0.0928   0.0000   0.0136   0.0136   0.0000   0.0000 ""      1 "Study" "NO " "NO " "Default" "YES" "NO "   0.9000   1.1000 "   " "No"   0.0000   0.0000   1.0000 "" "" "" "" "" "NO " "NO " "NO " "NO " "NO " "NO " "NO "  0.100  1.100  0.010 ""
    14 "SENECA 3 0"   345.00 1.040188 -31.695487   0.0000   0.0000      1      1      2 7 "NO " "Connected" "" "" "newbus 138" 358.8648  -0.553191   0.8850  -0.5465  19.2705  19.2696   0.0009   0.0000   0.0110   0.0110   0.0000   0.0000 ""      1 "Study" "NO " "NO " "Default" "YES" "NO "   0.9000   1.1000 "   " "No"   0.0000   0.0000   1.0000 "" "" "" "" "" "NO " "NO " "NO " "NO " "NO " "NO " "NO "  0.100  1.100  0.010 ""
    15 "SENECA 3 1"   138.00 1.039855 -33.749045   0.0000   0.0000      1      1      2 7 "NO " "Connected" "" "" "newbus 138" 143.5000  -0.589032   0.8646  -0.5777  19.2715  19.2696   0.0019   0.0000   0.0151   0.0151   0.0000   0.0000 ""      1 "Study" "NO " "NO " "Default" "YES" "NO "   0.9000   1.1000 "   " "No"   0.0000   0.0000   1.0000 "" "" "" "" "" "NO " "NO " "NO " "NO " "NO " "NO " "NO "  0.100  1.100  0.010 ""
    16 "SENECA 3 2"   13.80 1.040000 -28.864401   0.0000   0.0000      1      1      2 7 "NO " "Connected" "" "" "newbus 138"  14.3520  -0.503779   0.9108  -0.5020  19.2697  19.2696   0.0001   0.0000 "PV Bus" "PV Bus" "PV Bus"   0.0000 ""      1 "Study" "NO " "NO " "Default" "YES" "NO "   0.9000   1.1000 "   " "No"   0.0000   0.0000   1.0000 "" "" "" "" "" "NO " "NO " "NO " "NO " "NO " "NO " "NO "  0.100  1.100  0.010 ""
    17 "SENECA 3 3"   13.80 1.040000 -28.308834   0.0000   0.0000      1      1      2 7 "YES" "Connected" "" "" "newbus 138"  14.3520  -0.494082   0.9156  -0.4932  19.2696  19.2696   0.0000   0.0000 "Slack Bus" "Slack Bus" "Slack Bus"   0.0000 ""      1 "Study" "NO " "NO " "Default" "YES" "NO "   0.9000   1.1000 "   " "No"   0.0000   0.0000   1.0000 "" "" "" "" "" "NO " "NO " "NO " "NO " "NO " "NO " "NO "  0.100  1.100  0.010 ""
    18 "SENECA 3 4"   13.80 1.040000 -27.422852   0.0000   0.0000      1      1      2 7 "NO " "Connected" "" "" "newbus 138"  14.3520  -0.478619   0.9231  -0.4790  19.2694  19.2696  -0.0002   0.0000 "PV Bus" "PV Bus" "PV Bus"   0.0000 ""      1 "Study" "NO " "NO " "Default" "YES" "NO "   0.9000   1.1000 "   " "No"   0.0000   0.0000   1.0000 "" "" "" "" "" "NO " "NO " "NO " "NO " "NO " "NO " "NO "  0.100  1.100  0.010 ""
    19 "MONETTA 0"    138.00 1.036771 -44.961086   0.0000   0.0000      1      5      1 8 "NO " "Connected" "" "" "newbus 138" 143.0744  -0.784719   0.7336  -0.7326  19.8162  19.2696   0.5466   0.0000  -0.0385  -0.0385   0.0000   0.0000 ""      1 "Study" "NO " "NO " "Default" "YES" "NO "   0.9000   1.1000 "   " "No"   0.0000   0.0000   1.0000 "" "" "" "" "" "NO " "NO " "NO " "NO " "NO " "NO " "NO "  0.100  1.100  0.010 ""
    20 "MONETTA 1"    138.00 1.036723 -44.967376   0.0000   0.0000      1      5      1 8 "NO " "Connected" "" "" "newbus 138" 143.0677  -0.784829   0.7335  -0.7327  19.8162  19.2696   0.5466   0.0000  -0.0385  -0.0385   0.0000   0.0000 ""      1 "Study" "NO " "NO " "Default" "YES" "NO "   0.9000   1.1000 "   " "No"   0.0000   0.0000   1.0000 "" "" "" "" "" "NO " "NO " "NO " "NO " "NO " "NO " "NO "  0.100  1.100  0.010 ""
    21 "LEXINGTON 2 0" 138.00 1.024927 -43.817534   0.0000   0.0000      1      6      1 9 "NO " "Connected" "" "" "newbus 138" 141.4400  -0.764760   0.7395  -0.7096  19.9975  19.2696   0.7279   0.0000  -0.0900  -0.0900   0.0000   0.0000 ""      1 "Study" "NO " "NO " "Default" "YES" "NO "   0.9000   1.1000 "   " "No"   0.0000   0.0000   1.0000 "" "" "" "" "" "NO " "NO " "NO " "NO " "NO " "NO " "NO "  0.100  1.100  0.010 ""
    22 "LEXINGTON 2 1" 138.00 1.023453 -43.990450   0.0000   0.0000      1      6      1 9 "NO " "Connected" "" "" "newbus 138" 141.2365  -0.767778   0.7363  -0.7108  19.9978  19.2696   0.7282   0.0000  -0.0899  -0.0899   0.0000   0.0000 ""      1 "Study" "NO " "NO " "Default" "YES" "NO "   0.9000   1.1000 "   " "No"   0.0000   0.0000   1.0000 "" "" "" "" "" "NO " "NO " "NO " "NO " "NO " "NO " "NO "  0.100  1.100  0.010 ""
    23 "WELLFORD 0"   345.00 1.040140 -36.887564   0.0000   0.0000      1      3      2 10 "NO " "Connected" "" "" "newbus 138" 358.8482  -0.643809   0.8319  -0.6243  19.1086  19.2696  -0.1611   0.0000   0.1234   0.1234   0.0000   0.0000 ""      1 "Study" "NO " "NO " "Default" "YES" "NO "   0.9000   1.1000 "   " "No"   0.0000   0.0000   1.0000 "" "" "" "" "" "NO " "NO " "NO " "NO " "NO " "NO " "NO "  0.100  1.100  0.010 ""
    24 "WELLFORD 1"   138.00 1.034880 -38.416158   0.0000   0.0000      1      3      2 10 "NO " "Connected" "" "" "newbus 138" 142.8134  -0.670488   0.8108  -0.6430  19.1280  19.2696  -0.1417   0.0000   0.1150   0.1150   0.0000   0.0000 ""      1 "Study" "NO " "NO " "Default" "YES" "NO "   0.9000   1.1000 "   " "No"   0.0000   0.0000   1.0000 "" "" "" "" "" "NO " "NO " "NO " "NO " "NO " "NO " "NO "  0.100  1.100  0.010 ""
    25 "WELLFORD 2"   138.00 1.034860 -38.418573   0.0000   0.0000      1      3      2 10 "NO " "Connected" "" "" "newbus 138" 142.8107  -0.670531   0.8108  -0.6431  19.1280  19.2696  -0.1416   0.0000   0.1150   0.1150   0.0000   0.0000 ""      1 "Study" "NO " "NO " "Default" "YES" "NO "   0.9000   1.1000 "   " "No"   0.0000   0.0000   1.0000 "" "" "" "" "" "NO " "NO " "NO " "NO " "NO " "NO " "NO "  0.100  1.100  0.010 ""
    26 "WELLFORD 3"   138.00 1.034694 -38.439834   0.0000   0.0000      1      3      2 10 "NO " "Connected" "" "" "newbus 138" 142.7877  -0.670902   0.8104  -0.6433  19.1281  19.2696  -0.1416   0.0000   0.1150   0.1150   0.0000   0.0000 ""      1 "Study" "NO " "NO " "Default" "YES" "NO "   0.9000   1.1000 "   " "No"   0.0000   0.0000   1.0000 "" "" "" "" "" "NO " "NO " "NO " "NO " "NO " "NO " "NO "  0.100  1.100  0.010 ""
    27 "LAURENS 0"    138.00 1.070980 -41.850328   0.0000   0.0000      1      3      2 11 "NO " "Connected" "" "" "newbus 138" 147.7952  -0.730426   0.7978  -0.7145  19.5167  19.2696   0.2470   0.0000  -0.1018  -0.1018   0.0000   0.0000 ""      1 "Study" "NO " "NO " "Default" "YES" "NO "   0.9000   1.1000 "   " "No"   0.0000   0.0000   1.0000 "" "" "" "" "" "NO " "NO " "NO " "NO " "NO " "NO " "NO "  0.100  1.100  0.010 ""
    28 "LAURENS 1"    138.00 1.070394 -41.918174   0.0000   0.0000      1      3      2 11 "NO " "Connected" "" "" "newbus 138" 147.7144  -0.731610   0.7965  -0.7151  19.5165  19.2696   0.2469   0.0000  -0.1018  -0.1018   0.0000   0.0000 ""      1 "Study" "NO " "NO " "Default" "YES" "NO "   0.9000   1.1000 "   " "No"   0.0000   0.0000   1.0000 "" "" "" "" "" "NO " "NO " "NO " "NO " "NO " "NO " "NO "  0.100  1.100  0.010 ""
    29 "COLUMBIA 10 0" 138.00 1.022094 -46.192117   0.0000   0.0000      1      6      1 12 "NO " "Connected" "" "" "newbus 138" 141.0490  -0.806205   0.7075  -0.7376  20.0530  19.2696   0.7833   0.0000  -0.0537  -0.0537   0.0000   0.0000 ""      1 "Study" "NO " "NO " "Default" "YES" "NO "   0.9000   1.1000 "   " "No"   0.0000   0.0000   1.0000 "" "" "" "" "" "NO " "NO " "NO " "NO " "NO " "NO " "NO "  0.100  1.100  0.010 ""
    30 "COLUMBIA 10 1" 138.00 1.021058 -46.313487   0.0000   0.0000      1      6      1 12 "NO " "Connected" "" "" "newbus 138" 140.9060  -0.808323   0.7053  -0.7384  20.0534  19.2696   0.7837   0.0000  -0.0536  -0.0536   0.0000   0.0000 ""      1 "Study" "NO " "NO " "Default" "YES" "NO "   0.9000   1.1000 "   " "No"   0.0000   0.0000   1.0000 "" "" "" "" "" "NO " "NO " "NO " "NO " "NO " "NO " "NO "  0.100  1.100  0.010 ""
    31 "WINDSOR 0"    138.00 1.058731 -46.497902   0.0000   0.0000      1      5      1 13 "NO " "Connected" "" "" "newbus 138" 146.1049  -0.811541   0.7288  -0.7679  19.6858  19.2696   0.4162   0.0000  -0.0126  -0.0126   0.0000   0.0000 ""      1 "Study" "NO " "NO " "Default" "YES" "NO "   0.9000   1.1000 "   " "No"   0.0000   0.0000   1.0000 "" "" "" "" "" "NO " "NO " "NO " "NO " "NO " "NO " "NO "  0.100  1.100  0.010 ""
    32 "WINDSOR 1"    138.00 1.058633 -46.509209   0.0000   0.0000      1      5      1 13 "NO " "Connected" "" "" "newbus 138" 146.0913  -0.811739   0.7286  -0.7680  19.6858  19.2696   0.4162   0.0000  -0.0126  -0.0126   0.0000   0.0000 ""      1 "Study" "NO " "NO " "Default" "YES" "NO "   0.9000   1.1000 "   " "No"   0.0000   0.0000   1.0000 "" "" "" "" "" "NO " "NO " "NO " "NO " "NO " "NO " "NO "  0.100  1.100  0.010 ""
    33 "PROSPERITY 0" 138.00 1.026992 -45.565217   0.0000   0.0000      1      5      1 14 "NO " "Connected" "" "" "newbus 138" 141.7248  -0.795263   0.7190  -0.7333  19.7971  19.2696   0.5275   0.0000  -0.0367  -0.0367   0.0000   0.0000 ""      1 "Study" "NO " "NO " "Default" "YES" "NO "   0.9000   1.1000 "   " "No"   0.0000   0.0000   1.0000 "" "" "" "" "" "NO " "NO " "NO " "NO " "NO " "NO " "NO "  0.100  1.100  0.010 ""
    34 "PROSPERITY 1" 138.00 1.026738 -45.594615   0.0000   0.0000      1      5      1 14 "NO " "Connected" "" "" "newbus 138" 141.6898  -0.795776   0.7184  -0.7335  19.7972  19.2696   0.5276   0.0000  -0.0367  -0.0367   0.0000   0.0000 ""      1 "Study" "NO " "NO " "Default" "YES" "NO "   0.9000   1.1000 "   " "No"   0.0000   0.0000   1.0000 "" "" "" "" "" "NO " "NO " "NO " "NO " "NO " "NO " "NO "  0.100  1.100  0.010 ""
    35 "NORTH AUGUSTA 2 0" 138.00 1.040892 -45.580791   0.0000   0.0000      1      5      1 15 "NO " "Connected" "" "" "newbus 138" 143.6431  -0.795535   0.7285  -0.7434  19.6542  19.2696   0.3845   0.0000  -0.0048  -0.0048   0.0000   0.0000 ""      1 "Study" "NO " "NO " "Default" "YES" "NO "   0.9000   1.1000 "   " "No"   0.0000   0.0000   1.0000 "" "" "" "" "" "NO " "NO " "NO " "NO " "NO " "NO " "NO "  0.100  1.100  0.010 ""
    36 "NORTH AUGUSTA 2 1" 138.00 1.040489 -45.626562   0.0000   0.0000      1      5      1 15 "NO " "Connected" "" "" "newbus 138" 143.5875  -0.796334   0.7276  -0.7437  19.6543  19.2696   0.3846   0.0000  -0.0047  -0.0047   0.0000   0.0000 ""      1 "Study" "NO " "NO " "Default" "YES" "NO "   0.9000   1.1000 "   " "No"   0.0000   0.0000   1.0000 "" "" "" "" "" "NO " "NO " "NO " "NO " "NO " "NO " "NO "  0.100  1.100  0.010 ""
    37 "LANDO 0"      138.00 1.023200 -30.818475   0.0000   0.0000      1      4      2 16 "NO " "Connected" "" "" "newbus 138" 141.2016  -0.537884   0.8787  -0.5242  -1.7953  19.2696 -21.0649   0.0000   2.9905   2.9905   0.0000   0.0000 ""      1 "Study" "NO " "NO " "Default" "YES" "NO "   0.9000   1.1000 "   " "No"   0.0000   0.0000   1.0000 "" "" "" "" "" "NO " "NO " "NO " "NO " "NO " "NO " "NO "  0.100  1.100  0.010 ""
    38 "LANDO 1"      138.00 1.023199 -30.818652   0.0000   0.0000      1      4      2 16 "NO " "Connected" "" "" "newbus 138" 141.2014  -0.537887   0.8787  -0.5242  -1.7953  19.2696 -21.0649   0.0000   2.9905   2.9905   0.0000   0.0000 ""      1 "Study" "NO " "NO " "Default" "YES" "NO "   0.9000   1.1000 "   " "No"   0.0000   0.0000   1.0000 "" "" "" "" "" "NO " "NO " "NO " "NO " "NO " "NO " "NO "  0.100  1.100  0.010 ""
    39 "GAFFNEY 3 0"  345.00 1.040473 -37.023307   0.0000   0.0000      1      3      2 17 "NO " "Connected" "" "" "newbus 138" 358.9631  -0.646179   0.8307  -0.6265  19.0136  19.2696  -0.2560   0.0000   0.1630   0.1630   0.0000   0.0000 ""      1 "Study" "NO " "NO " "Default" "YES" "NO "   0.9000   1.1000 "   " "No"   0.0000   0.0000   1.0000 "" "" "" "" "" "NO " "NO " "NO " "NO " "NO " "NO " "NO "  0.100  1.100  0.010 ""
    40 "GAFFNEY 3 1"  138.00 1.037435 -37.680854   0.0000   0.0000      1      3      2 17 "NO " "Connected" "" "" "newbus 138" 143.1660  -0.657655   0.8211  -0.6341  19.0256  19.2696  -0.2441   0.0000   0.1624   0.1624   0.0000   0.0000 ""      1 "Study" "NO " "NO " "Default" "YES" "NO "   0.9000   1.1000 "   " "No"   0.0000   0.0000   1.0000 "" "" "" "" "" "NO " "NO " "NO " "NO " "NO " "NO " "NO "  0.100  1.100  0.010 ""
    41 "GAFFNEY 3 2"  138.00 1.036899 -37.747029   0.0000   0.0000      1      3      2 17 "NO " "Connected" "" "" "newbus 138" 143.0920  -0.658810   0.8199  -0.6348  19.0259  19.2696  -0.2438   0.0000   0.1625   0.1625   0.0000   0.0000 ""      1 "Study" "NO " "NO " "Default" "YES" "NO "   0.9000   1.1000 "   " "No"   0.0000   0.0000   1.0000 "" "" "" "" "" "NO " "NO " "NO " "NO " "NO " "NO " "NO "  0.100  1.100  0.010 ""
    42 "CLARKS HILL 2 0" 138.00 1.044666 -43.809976   0.0000   0.0000      1      5      1 18 "NO " "Connected" "" "" "newbus 138" 144.1639  -0.764628   0.7539  -0.7232  19.6125  19.2696   0.3428   0.0000   0.0012   0.0012   0.0000   0.0000 ""      1 "Study" "NO " "NO " "Default" "YES" "NO "   0.9000   1.1000 "   " "No"   0.0000   0.0000   1.0000 "" "" "" "" "" "NO " "NO " "NO " "NO " "NO " "NO " "NO "  0.100  1.100  0.010 ""
    43 "CLARKS HILL 2 1" 138.00 1.044625 -43.814813   0.0000   0.0000      1      5      1 18 "NO " "Connected" "" "" "newbus 138" 144.1583  -0.764713   0.7538  -0.7232  19.6125  19.2696   0.3428   0.0000   0.0012   0.0012   0.0000   0.0000 ""      1 "Study" "NO " "NO " "Default" "YES" "NO "   0.9000   1.1000 "   " "No"   0.0000   0.0000   1.0000 "" "" "" "" "" "NO " "NO " "NO " "NO " "NO " "NO " "NO "  0.100  1.100  0.010 ""
    44 "JENKINSVILLE 0" 138.00 1.027543 -43.214227   0.0000   0.0000      1      6      1 19 "NO " "Connected" "" "" "newbus 138" 141.8009  -0.754231   0.7489  -0.7036  20.0816  19.2696   0.8120   0.0000  -0.0936  -0.0936   0.0000   0.0000 ""      1 "Study" "NO " "NO " "Default" "YES" "NO "   0.9000   1.1000 "   " "No"   0.0000   0.0000   1.0000 "" "" "" "" "" "NO " "NO " "NO " "NO " "NO " "NO " "NO "  0.100  1.100  0.010 ""
    45 "JENKINSVILLE 1" 138.00 1.027520 -43.217109   0.0000   0.0000      1      6      1 19 "NO " "Connected" "" "" "newbus 138" 141.7977  -0.754281   0.7488  -0.7036  20.0816  19.2696   0.8120   0.0000  -0.0936  -0.0936   0.0000   0.0000 ""      1 "Study" "NO " "NO " "Default" "YES" "NO "   0.9000   1.1000 "   " "No"   0.0000   0.0000   1.0000 "" "" "" "" "" "NO " "NO " "NO " "NO " "NO " "NO " "NO "  0.100  1.100  0.010 ""
    46 "WOODRUFF 0"   138.00 1.023738 -39.831552   0.0000   0.0000      1      3      2 20 "NO " "Connected" "" "" "newbus 138" 141.2759  -0.695192   0.7862  -0.6557  19.0877  19.2696  -0.1819   0.0000   0.1286   0.1286   0.0000   0.0000 ""      1 "Study" "NO " "NO " "Default" "YES" "NO "   0.9000   1.1000 "   " "No"   0.0000   0.0000   1.0000 "" "" "" "" "" "NO " "NO " "NO " "NO " "NO " "NO " "NO "  0.100  1.100  0.010 ""
    47 "WOODRUFF 1"   138.00 1.023369 -39.876173   0.0000   0.0000      1      3      2 20 "NO " "Connected" "" "" "newbus 138" 141.2250  -0.695971   0.7854  -0.6561  19.0879  19.2696  -0.1817   0.0000   0.1286   0.1286   0.0000   0.0000 ""      1 "Study" "NO " "NO " "Default" "YES" "NO "   0.9000   1.1000 "   " "No"   0.0000   0.0000   1.0000 "" "" "" "" "" "NO " "NO " "NO " "NO " "NO " "NO " "NO "  0.100  1.100  0.010 ""
    48 "IVA 0"        138.00 1.050452 -43.101813   0.0000   0.0000      1      5      2 21 "NO " "Connected" "" "" "newbus 138" 144.9624  -0.752269   0.7670  -0.7178  19.3974  19.2696   0.1278   0.0000   0.0181   0.0181   0.0000   0.0000 ""      1 "Study" "NO " "NO " "Default" "YES" "NO "   0.9000   1.1000 "   " "No"   0.0000   0.0000   1.0000 "" "" "" "" "" "NO " "NO " "NO " "NO " "NO " "NO " "NO "  0.100  1.100  0.010 ""
    49 "IVA 1"        13.80 1.050190 -42.912657   0.0000   0.0000      1      5      2 21 "NO " "Connected" "" "" "newbus 138"  14.4926  -0.748967   0.7692  -0.7151  19.3973  19.2696   0.1277   0.0000   0.0181   0.0181   0.0000   0.0000 ""      1 "Study" "NO " "NO " "Default" "YES" "NO "   0.9000   1.1000 "   " "No"   0.0000   0.0000   1.0000 "" "" "" "" "" "NO " "NO " "NO " "NO " "NO " "NO " "NO "  0.100  1.100  0.010 ""
    50 "IVA 2"        13.80 1.050127 -42.879755   0.0000   0.0000      1      5      2 21 "NO " "Connected" "" "" "newbus 138"  14.4918  -0.748393   0.7695  -0.7146  19.3973  19.2696   0.1276   0.0000   0.0181   0.0181   0.0000   0.0000 ""      1 "Study" "NO " "NO " "Default" "YES" "NO "   0.9000   1.1000 "   " "No"   0.0000   0.0000   1.0000 "" "" "" "" "" "NO " "NO " "NO " "NO " "NO " "NO " "NO "  0.100  1.100  0.010 ""
    51 "IVA 3"        138.00 1.050448 -43.102259   0.0000   0.0000      1      5      2 21 "NO " "Connected" "" "" "newbus 138" 144.9618  -0.752276   0.7670  -0.7178  19.3974  19.2696   0.1278   0.0000   0.0181   0.0181   0.0000   0.0000 ""      1 "Study" "NO " "NO " "Default" "YES" "NO "   0.9000   1.1000 "   " "No"   0.0000   0.0000   1.0000 "" "" "" "" "" "NO " "NO " "NO " "NO " "NO " "NO " "NO "  0.100  1.100  0.010 ""
    52 "IVA 4"        138.00 1.050218 -43.128606   0.0000   0.0000      1      5      2 21 "NO " "Connected" "" "" "newbus 138" 144.9301  -0.752736   0.7665  -0.7180  19.3975  19.2696   0.1279   0.0000   0.0181   0.0181   0.0000   0.0000 ""      1 "Study" "NO " "NO " "Default" "YES" "NO "   0.9000   1.1000 "   " "No"   0.0000   0.0000   1.0000 "" "" "" "" "" "NO " "NO " "NO " "NO " "NO " "NO " "NO "  0.100  1.100  0.010 ""
    53 "CAYCE 0"      138.00 1.025524 -45.355452   0.0000   0.0000      1      6      1 22 "NO " "Connected" "" "" "newbus 138" 141.5223  -0.791602   0.7206  -0.7296  20.0581  19.2696   0.7885   0.0000  -0.0590  -0.0590   0.0000   0.0000 ""      1 "Study" "NO " "NO " "Default" "YES" "NO "   0.9000   1.1000 "   " "No"   0.0000   0.0000   1.0000 "" "" "" "" "" "NO " "NO " "NO " "NO " "NO " "NO " "NO "  0.100  1.100  0.010 ""
    54 "CAYCE 1"      138.00 1.025165 -45.393999   0.0000   0.0000      1      6      1 22 "NO " "Connected" "" "" "newbus 138" 141.4728  -0.792275   0.7199  -0.7299  20.0583  19.2696   0.7886   0.0000  -0.0589  -0.0589   0.0000   0.0000 ""      1 "Study" "NO " "NO " "Default" "YES" "NO "   0.9000   1.1000 "   " "No"   0.0000   0.0000   1.0000 "" "" "" "" "" "NO " "NO " "NO " "NO " "NO " "NO " "NO "  0.100  1.100  0.010 ""
    55 "TROY 0"       138.00 1.045620 -42.313633   0.0000   0.0000      1      5      2 23 "NO " "Connected" "" "" "newbus 138" 144.2956  -0.738512   0.7732  -0.7039  19.5191  19.2696   0.2495   0.0000   0.0086   0.0086   0.0000   0.0000 ""      1 "Study" "NO " "NO " "Default" "YES" "NO "   0.9000   1.1000 "   " "No"   0.0000   0.0000   1.0000 "" "" "" "" "" "NO " "NO " "NO " "NO " "NO " "NO " "NO "  0.100  1.100  0.010 ""
    56 "TROY 1"       138.00 1.045597 -42.316207   0.0000   0.0000      1      5      2 23 "NO " "Connected" "" "" "newbus 138" 144.2924  -0.738557   0.7732  -0.7039  19.5191  19.2696   0.2495   0.0000   0.0086   0.0086   0.0000   0.0000 ""      1 "Study" "NO " "NO " "Default" "YES" "NO "   0.9000   1.1000 "   " "No"   0.0000   0.0000   1.0000 "" "" "" "" "" "NO " "NO " "NO " "NO " "NO " "NO " "NO "  0.100  1.100  0.010 ""
    57 "SIMPSONVILLE 2 0" 345.00 1.043811 -37.520575   0.0000   0.0000      1      2      2 24 "NO " "Connected" "" "" "newbus 138" 360.1147  -0.654858   0.8279  -0.6357  19.3347  19.2696   0.0651   0.0000   0.0142   0.0142   0.0000   0.0000 ""      1 "Study" "NO " "NO " "Default" "YES" "NO "   0.9000   1.1000 "   " "No"   0.0000   0.0000   1.0000 "" "" "" "" "" "NO " "NO " "NO " "NO " "NO " "NO " "NO "  0.100  1.100  0.010 ""
    58 "SIMPSONVILLE 2 1" 138.00 1.045747 -39.070510   0.0000   0.0000      1      2      2 24 "NO " "Connected" "" "" "newbus 138" 144.3131  -0.681909   0.8119  -0.6591  19.3356  19.2696   0.0660   0.0000   0.0130   0.0130   0.0000   0.0000 ""      1 "Study" "NO " "NO " "Default" "YES" "NO "   0.9000   1.1000 "   " "No"   0.0000   0.0000   1.0000 "" "" "" "" "" "NO " "NO " "NO " "NO " "NO " "NO " "NO "  0.100  1.100  0.010 ""
    59 "SIMPSONVILLE 2 2" 138.00 1.044486 -39.224617   0.0000   0.0000      1      2      2 24 "NO " "Connected" "" "" "newbus 138" 144.1390  -0.684599   0.8091  -0.6605  19.3358  19.2696   0.0661   0.0000   0.0130   0.0130   0.0000   0.0000 ""      1 "Study" "NO " "NO " "Default" "YES" "NO "   0.9000   1.1000 "   " "No"   0.0000   0.0000   1.0000 "" "" "" "" "" "NO " "NO " "NO " "NO " "NO " "NO " "NO "  0.100  1.100  0.010 ""
    60 "MAYO 0"       138.00 1.035922 -37.973043   0.0000   0.0000      1      3      2 25 "NO " "Connected" "" "" "newbus 138" 142.9572  -0.662755   0.8166  -0.6374  19.0316  19.2696  -0.2381   0.0000   0.1522   0.1522   0.0000   0.0000 ""      1 "Study" "NO " "NO " "Default" "YES" "NO "   0.9000   1.1000 "   " "No"   0.0000   0.0000   1.0000 "" "" "" "" "" "NO " "NO " "NO " "NO " "NO " "NO " "NO "  0.100  1.100  0.010 ""
    61 "MAYO 1"       138.00 1.035920 -37.973253   0.0000   0.0000      1      3      2 25 "NO " "Connected" "" "" "newbus 138" 142.9570  -0.662758   0.8166  -0.6374  19.0316  19.2696  -0.2381   0.0000   0.1522   0.1522   0.0000   0.0000 ""      1 "Study" "NO " "NO " "Default" "YES" "NO "   0.9000   1.1000 "   " "No"   0.0000   0.0000   1.0000 "" "" "" "" "" "NO " "NO " "NO " "NO " "NO " "NO " "NO "  0.100  1.100  0.010 ""
    62 "BELTON 2 0"   138.00 1.023192 -45.753185   0.0000   0.0000      1      6      2 26 "NO " "Connected" "" "" "newbus 138" 141.2004  -0.798544   0.7139  -0.7330  20.0708  19.2696   0.8011   0.0000  -0.0330  -0.0330   0.0000   0.0000 ""      1 "Study" "NO " "NO " "Default" "YES" "NO "   0.9000   1.1000 "   " "No"   0.0000   0.0000   1.0000 "" "" "" "" "" "NO " "NO " "NO " "NO " "NO " "NO " "NO "  0.100  1.100  0.010 ""
    63 "BELTON 2 1"   13.80 1.023192 -45.753185   0.0000   0.0000      1      6      2 26 "NO " "Connected" "" "" "newbus 138"  14.1200  -0.798544   0.7139  -0.7330  20.0708  19.2696   0.8011   0.0000  -0.0330  -0.0330   0.0000   0.0000 ""      1 "Study" "NO " "NO " "Default" "YES" "NO "   0.9000   1.1000 "   " "No"   0.0000   0.0000   1.0000 "" "" "" "" "" "NO " "NO " "NO " "NO " "NO " "NO " "NO "  0.100  1.100  0.010 ""
    64 "BELTON 2 2"   138.00 1.022823 -45.794796   0.0000   0.0000      1      6      2 26 "NO " "Connected" "" "" "newbus 138" 141.1496  -0.799270   0.7131  -0.7332  20.0710  19.2696   0.8013   0.0000  -0.0330  -0.0330   0.0000   0.0000 ""      1 "Study" "NO " "NO " "Default" "YES" "NO "   0.9000   1.1000 "   " "No"   0.0000   0.0000   1.0000 "" "" "" "" "" "NO " "NO " "NO " "NO " "NO " "NO " "NO "  0.100  1.100  0.010 ""
    65 "BRADLEY 0"    345.00 1.045981 -40.520234   0.0000   0.0000      1      5      2 27 "NO " "Connected" "" "" "newbus 138" 360.8636  -0.707212   0.7951  -0.6796  19.5007  19.2696   0.2311   0.0000   0.0080   0.0080   0.0000   0.0000 ""      1 "Study" "NO " "NO " "Default" "YES" "NO "   0.9000   1.1000 "   " "No"   0.0000   0.0000   1.0000 "" "" "" "" "" "NO " "NO " "NO " "NO " "NO " "NO " "NO "  0.100  1.100  0.010 ""
    66 "BRADLEY 1"    138.00 1.046377 -41.615222   0.0000   0.0000      1      5      2 27 "NO " "Connected" "" "" "newbus 138" 144.4001  -0.726323   0.7823  -0.6949  19.5054  19.2696   0.2358   0.0000   0.0089   0.0089   0.0000   0.0000 ""      1 "Study" "NO " "NO " "Default" "YES" "NO "   0.9000   1.1000 "   " "No"   0.0000   0.0000   1.0000 "" "" "" "" "" "NO " "NO " "NO " "NO " "NO " "NO " "NO "  0.100  1.100  0.010 ""
    67 "BRADLEY 2"    138.00 1.046330 -41.620504   0.0000   0.0000      1      5      2 27 "NO " "Connected" "" "" "newbus 138" 144.3936  -0.726415   0.7822  -0.6950  19.5054  19.2696   0.2358   0.0000   0.0089   0.0089   0.0000   0.0000 ""      1 "Study" "NO " "NO " "Default" "YES" "NO "   0.9000   1.1000 "   " "No"   0.0000   0.0000   1.0000 "" "" "" "" "" "NO " "NO " "NO " "NO " "NO " "NO " "NO "  0.100  1.100  0.010 ""
    68 "ENOREE 0"     138.00 1.054215 -40.476787   0.0000   0.0000      1      3      2 28 "NO " "Connected" "" "" "newbus 138" 145.4817  -0.706453   0.8019  -0.6843  19.6041  19.2696   0.3345   0.0000  -0.1527  -0.1527   0.0000   0.0000 ""      1 "Study" "NO " "NO " "Default" "YES" "NO "   0.9000   1.1000 "   " "No"   0.0000   0.0000   1.0000 "" "" "" "" "" "NO " "NO " "NO " "NO " "NO " "NO " "NO "  0.100  1.100  0.010 ""
    69 "ENOREE 1"     138.00 1.054055 -40.495852   0.0000   0.0000      1      3      2 28 "NO " "Connected" "" "" "newbus 138" 145.4597  -0.706786   0.8016  -0.6845  19.6040  19.2696   0.3344   0.0000  -0.1527  -0.1527   0.0000   0.0000 ""      1 "Study" "NO " "NO " "Default" "YES" "NO "   0.9000   1.1000 "   " "No"   0.0000   0.0000   1.0000 "" "" "" "" "" "NO " "NO " "NO " "NO " "NO " "NO " "NO "  0.100  1.100  0.010 ""
    70 "HONEA PATH 2 0" 138.00 1.039418 -41.374280   0.0000   0.0000      1      2      2 29 "NO " "Connected" "" "" "newbus 138" 143.4397  -0.722117   0.7800  -0.6870  19.4207  19.2696   0.1511   0.0000   0.0006   0.0006   0.0000   0.0000 ""      1 "Study" "NO " "NO " "Default" "YES" "NO "   0.9000   1.1000 "   " "No"   0.0000   0.0000   1.0000 "" "" "" "" "" "NO " "NO " "NO " "NO " "NO " "NO " "NO "  0.100  1.100  0.010 ""
    71 "HONEA PATH 2 1" 13.80 1.040000 -41.345618   0.0000   0.0000      1      2      2 29 "NO " "Connected" "" "" "newbus 138"  14.3520  -0.721617   0.7808  -0.6870  19.4207  19.2696   0.1511   0.0000 "PV Bus" "PV Bus" "PV Bus"   0.0000 ""      1 "Study" "NO " "NO " "Default" "YES" "NO "   0.9000   1.1000 "   " "No"   0.0000   0.0000   1.0000 "" "" "" "" "" "NO " "NO " "NO " "NO " "NO " "NO " "NO "  0.100  1.100  0.010 ""
    72 "HONEA PATH 2 2" 13.80 1.040000 -41.326067   0.0000   0.0000      1      2      2 29 "NO " "Connected" "" "" "newbus 138"  14.3520  -0.721276   0.7810  -0.6868  19.4207  19.2696   0.1511   0.0000 "PV Bus" "PV Bus" "PV Bus"   0.0000 ""      1 "Study" "NO " "NO " "Default" "YES" "NO "   0.9000   1.1000 "   " "No"   0.0000   0.0000   1.0000 "" "" "" "" "" "NO " "NO " "NO " "NO " "NO " "NO " "NO "  0.100  1.100  0.010 ""
    73 "HONEA PATH 2 3" 13.80 1.040000 -41.307727   0.0000   0.0000      1      2      2 29 "NO " "Connected" "" "" "newbus 138"  14.3520  -0.720956   0.7812  -0.6865  19.4207  19.2696   0.1510   0.0000 "PV Bus" "PV Bus" "PV Bus"   0.0000 ""      1 "Study" "NO " "NO " "Default" "YES" "NO "   0.9000   1.1000 "   " "No"   0.0000   0.0000   1.0000 "" "" "" "" "" "NO " "NO " "NO " "NO " "NO " "NO " "NO "  0.100  1.100  0.010 ""
    74 "SPRINGFIELD 0" 138.00 1.050480 -46.469288   0.0000   0.0000      1      6      1 30 "NO " "Connected" "" "" "newbus 138" 144.9662  -0.811042   0.7235  -0.7616  19.7158  19.2696   0.4462   0.0000  -0.0181  -0.0181   0.0000   0.0000 ""      1 "Study" "NO " "NO " "Default" "YES" "NO "   0.9000   1.1000 "   " "No"   0.0000   0.0000   1.0000 "" "" "" "" "" "NO " "NO " "NO " "NO " "NO " "NO " "NO "  0.100  1.100  0.010 ""
    75 "SPRINGFIELD 1" 138.00 1.050427 -46.475470   0.0000   0.0000      1      6      1 30 "NO " "Connected" "" "" "newbus 138" 144.9590  -0.811150   0.7234  -0.7616  19.7158  19.2696   0.4462   0.0000  -0.0181  -0.0181   0.0000   0.0000 ""      1 "Study" "NO " "NO " "Default" "YES" "NO "   0.9000   1.1000 "   " "No"   0.0000   0.0000   1.0000 "" "" "" "" "" "NO " "NO " "NO " "NO " "NO " "NO " "NO "  0.100  1.100  0.010 ""
    76 "EDGEMOOR 0"   138.00 1.021935 -29.474811   0.0000   0.0000      1      4      2 31 "NO " "Connected" "" "" "newbus 138" 141.0270  -0.514432   0.8897  -0.5028  -0.5996  19.2696 -19.8692   0.0000   2.1576   2.1576   0.0000   0.0000 ""      1 "Study" "NO " "NO " "Default" "YES" "NO "   0.9000   1.1000 "   " "No"   0.0000   0.0000   1.0000 "" "" "" "" "" "NO " "NO " "NO " "NO " "NO " "NO " "NO "  0.100  1.100  0.010 ""
    77 "EDGEMOOR 1"   138.00 1.021862 -29.482915   0.0000   0.0000      1      4      2 31 "NO " "Connected" "" "" "newbus 138" 141.0169  -0.514574   0.8895  -0.5029  -0.6002  19.2696 -19.8699   0.0000   2.1574   2.1574   0.0000   0.0000 ""      1 "Study" "NO " "NO " "Default" "YES" "NO "   0.9000   1.1000 "   " "No"   0.0000   0.0000   1.0000 "" "" "" "" "" "NO " "NO " "NO " "NO " "NO " "NO " "NO "  0.100  1.100  0.010 ""
    78 "NEWRY 0"      138.00 1.039439 -35.697450   0.0000   0.0000      1      1      2 32 "NO " "Connected" "" "" "newbus 138" 143.4426  -0.623038   0.8441  -0.6065  19.2898  19.2696   0.0202   0.0000   0.0196   0.0196   0.0000   0.0000 ""      1 "Study" "NO " "NO " "Default" "YES" "NO "   0.9000   1.1000 "   " "No"   0.0000   0.0000   1.0000 "" "" "" "" "" "NO " "NO " "NO " "NO " "NO " "NO " "NO "  0.100  1.100  0.010 ""
    79 "NEWRY 1"      138.00 1.039435 -35.697866   0.0000   0.0000      1      1      2 32 "NO " "Connected" "" "" "newbus 138" 143.4421  -0.623045   0.8441  -0.6065  19.2898  19.2696   0.0202   0.0000   0.0196   0.0196   0.0000   0.0000 ""      1 "Study" "NO " "NO " "Default" "YES" "NO "   0.9000   1.1000 "   " "No"   0.0000   0.0000   1.0000 "" "" "" "" "" "NO " "NO " "NO " "NO " "NO " "NO " "NO "  0.100  1.100  0.010 ""
    80 "CLARKS HILL 1 0" 345.00 1.044817 -41.530024   0.0000   0.0000      1      5      1 33 "NO " "Connected" "" "" "newbus 138" 360.4618  -0.724836   0.7822  -0.6927  19.5731  19.2696   0.3035   0.0000   0.0034   0.0034   0.0000   0.0000 ""      1 "Study" "NO " "NO " "Default" "YES" "NO "   0.9000   1.1000 "   " "No"   0.0000   0.0000   1.0000 "" "" "" "" "" "NO " "NO " "NO " "NO " "NO " "NO " "NO "  0.100  1.100  0.010 ""
    81 "CLARKS HILL 1 1" 138.00 1.045239 -43.160743   0.0000   0.0000      1      5      1 33 "NO " "Connected" "" "" "newbus 138" 144.2429  -0.753297   0.7624  -0.7150  19.5950  19.2696   0.3254   0.0000   0.0032   0.0032   0.0000   0.0000 ""      1 "Study" "NO " "NO " "Default" "YES" "NO "   0.9000   1.1000 "   " "No"   0.0000   0.0000   1.0000 "" "" "" "" "" "NO " "NO " "NO " "NO " "NO " "NO " "NO "  0.100  1.100  0.010 ""
    82 "CLARKS HILL 1 2" 13.80 1.040000 -39.690515   0.0000   0.0000      1      5      1 33 "NO " "Connected" "" "" "newbus 138"  14.3520  -0.692730   0.8003  -0.6642  19.5727  19.2696   0.3031   0.0000 "PV Bus" "PV Bus" "PV Bus"   0.0000 ""      1 "Study" "NO " "NO " "Default" "YES" "NO "   0.9000   1.1000 "   " "No"   0.0000   0.0000   1.0000 "" "" "" "" "" "NO " "NO " "NO " "NO " "NO " "NO " "NO "  0.100  1.100  0.010 ""
...